[Format]      =  4.0
[Frequency]   =  0
[Precision]   =  1e-008
[MinAngle]    =  30
[DoSmartMesh] =  1
[Depth]       =  4
[LengthUnits] =  centimeters
[ProblemType] =  planar
[Coordinates] =  cartesian
[ACSolver]    =  0
[PrevType]    =  0
[PrevSoln]    =  ""
[Comment]     =  "Add comments here."
[PointProps]   = 0
[BdryProps]   = 1
  <BeginBdry>
    <BdryName> = "Boundary"
    <BdryType> = 0
    <A_0> = 0
    <A_1> = 0
    <A_2> = 0
    <Phi> = 0
    <c0> = 0
    <c0i> = 0
    <c1> = 0
    <c1i> = 0
    <Mu_ssd> = 0
    <Sigma_ssd> = 0
    <innerangle> = 0
    <outerangle> = 0
  <EndBdry>
[BlockProps]  = 3
  <BeginBlock>
    <BlockName> = "M-15 Steel"
    <Mu_x> = 1
    <Mu_y> = 1
    <H_c> = 0
    <H_cAngle> = 0
    <J_re> = 0
    <J_im> = 0
    <Sigma> = 1.8999999999999999
    <d_lam> = 0.63500000000000001
    <Phi_h> = 0
    <Phi_hx> = 0
    <Phi_hy> = 0
    <LamType> = 0
    <LamFill> = 0.97999999999999998
    <NStrands> = 0
    <WireD> = 0
    <BHPoints> = 47
      0	0
      0.050000000000000003	15.120714
      0.10000000000000001	22.718292000000002
      0.14999999999999999	27.842732999999999
      0.20000000000000001	31.871434000000001
      0.25	35.365043999999997
      0.29999999999999999	38.600588000000002
      0.34999999999999998	41.736201999999999
      0.40000000000000002	44.873978999999999
      0.45000000000000001	48.087806999999998
      0.5	51.437235999999999
      0.55000000000000004	54.975220999999998
      0.59999999999999998	58.752992999999996
      0.65000000000000002	62.823644000000002
      0.69999999999999996	67.245284999999996
      0.75	72.084406000000001
      0.80000000000000004	77.420100000000005
      0.84999999999999998	83.350020999999998
      0.90000000000000002	89.999611999999999
      0.94999999999999996	97.537352999999996
      1	106.20140600000001
      1.05	116.34846400000001
      1.1000000000000001	128.54732899999999
      1.1499999999999999	143.76543100000001
      1.2	163.75416899999999
      1.25	191.86815799999999
      1.3	234.833507
      1.3500000000000001	306.50976900000001
      1.3999999999999999	435.255202
      1.45	674.911968
      1.5	1108.3255690000001
      1.55	1813.085468
      1.6000000000000001	2801.2174209999998
      1.6499999999999999	4053.6531169999998
      1.7	5591.10689
      1.75	7448.318413
      1.8	9708.81567
      1.8500000000000001	12486.931615
      1.8999999999999999	16041.483644
      1.95	21249.420623999998
      2	31313.495878000002
      2.0499999999999998	53589.446877000002
      2.1000000000000001	88477.484601000004
      2.1499999999999999	124329.41054
      2.2000000000000002	159968.5693
      2.25	197751.604272
      2.2999999999999998	234024.75134700001
  <EndBlock>
  <BeginBlock>
    <BlockName> = "Copper"
    <Mu_x> = 1
    <Mu_y> = 1
    <H_c> = 0
    <H_cAngle> = 0
    <J_re> = 0
    <J_im> = 0
    <Sigma> = 58
    <d_lam> = 0
    <Phi_h> = 0
    <Phi_hx> = 0
    <Phi_hy> = 0
    <LamType> = 0
    <LamFill> = 1
    <NStrands> = 0
    <WireD> = 0
    <BHPoints> = 0
  <EndBlock>
  <BeginBlock>
    <BlockName> = "Air"
    <Mu_x> = 1
    <Mu_y> = 1
    <H_c> = 0
    <H_cAngle> = 0
    <J_re> = 0
    <J_im> = 0
    <Sigma> = 0
    <d_lam> = 0
    <Phi_h> = 0
    <Phi_hx> = 0
    <Phi_hy> = 0
    <LamType> = 0
    <LamFill> = 1
    <NStrands> = 0
    <WireD> = 0
    <BHPoints> = 0
  <EndBlock>
[CircuitProps]  = 1
  <BeginCircuit>
    <CircuitName> = "Circuit"
    <TotalAmps_re> = 3
    <TotalAmps_im> = 0
    <CircuitType> = 1
  <EndCircuit>
[NumPoints] = 38
-2.5499999999999998	-5	0	0
15.75	-5	0	0
15.75	12	0	0
-2.5499999999999998	12	0	0
0	0	0	0
2	0	0	0
2	8.8000000000000007	0	0
0	8.8000000000000007	0	0
11.199999999999999	0	0	0
13.199999999999999	0	0	0
13.199999999999999	8.8000000000000007	0	0
11.199999999999999	8.8000000000000007	0	0
5.5999999999999996	0	0	0
7.5999999999999996	0	0	0
7.5999999999999996	8.8000000000000007	0	0
5.5999999999999996	8.8000000000000007	0	0
13.199999999999999	11	0	0
0	11	0	0
0	-3	0	0
13.199999999999999	-3	0	0
13.199999999999999	-1	0	0
0	-1	0	0
-1.55	1.5499999999999998	0	0
-0.050000000000000044	1.5499999999999998	0	0
-0.050000000000000044	7.25	0	0
-1.55	7.25	0	0
2.0499999999999998	1.5499999999999998	0	0
3.5499999999999998	1.5499999999999998	0	0
3.5499999999999998	7.25	0	0
2.0499999999999998	7.25	0	0
9.6499999999999986	1.5499999999999998	0	0
11.149999999999999	1.5499999999999998	0	0
11.149999999999999	7.25	0	0
9.6499999999999986	7.25	0	0
13.25	1.5499999999999998	0	0
14.75	1.5499999999999998	0	0
14.75	7.25	0	0
13.25	7.25	0	0
[NumSegments] = 41
0	1	-1	1	0	0
1	2	-1	1	0	0
2	3	-1	1	0	0
3	0	-1	1	0	0
4	5	-1	0	0	1
5	6	-1	0	0	1
6	7	-1	0	0	1
7	4	-1	0	0	1
8	9	-1	0	0	2
9	10	-1	0	0	2
10	11	-1	0	0	2
11	8	-1	0	0	2
12	13	-1	0	0	3
13	14	-1	0	0	3
14	15	-1	0	0	4
15	12	-1	0	0	3
6	15	-1	0	0	0
14	11	-1	0	0	0
10	16	-1	0	0	4
16	17	-1	0	0	4
17	7	-1	0	0	4
18	19	-1	0	0	5
19	20	-1	0	0	5
20	21	-1	0	0	5
21	18	-1	0	0	5
22	23	-1	0	0	6
23	24	-1	0	0	6
24	25	-1	0	0	6
25	22	-1	0	0	6
26	27	-1	0	0	7
27	28	-1	0	0	7
28	29	-1	0	0	7
29	26	-1	0	0	7
30	31	-1	0	0	8
31	32	-1	0	0	8
32	33	-1	0	0	8
33	30	-1	0	0	8
34	35	-1	0	0	9
35	36	-1	0	0	9
36	37	-1	0	0	9
37	34	-1	0	0	9
[NumArcSegments] = 0
[NumHoles] = 0
[NumBlockLabels] = 10
6.5999999999999996	-4.5	3	-1	0	0	0	1	0
1	4.4000000000000004	1	-1	0	0	1	1	0
12.199999999999999	4.4000000000000004	1	-1	0	0	2	1	0
6.5999999999999996	4.4000000000000004	1	-1	0	0	3	1	0
6.5999999999999996	9.9000000000000004	1	-1	0	0	4	1	0
6.5999999999999996	-2	1	-1	0	0	5	1	0
-0.80000000000000004	4.4000000000000004	2	-1	1	0	6	210	0
2.7999999999999998	4.4000000000000004	2	-1	1	0	7	210	0
10.399999999999999	4.4000000000000004	2	-1	1	0	8	210	0
14	4.4000000000000004	2	-1	1	0	9	210	0
