[Format]      =  1
[Precision]   =  1e-008
[MinAngle]    =  30
[DoSmartMesh] =  1
[Depth]       =  1
[LengthUnits] =  millimeters
[ProblemType] =  planar
[Coordinates] =  cartesian
[Comment]     =  "Add comments here."
[PointProps]   = 0
[BdryProps]   = 0
[BlockProps]  = 0
[ConductorProps]  = 0
[NumPoints] = 14
0	0	0	0	0
1.01	0	0	0	0
1.01	0.02	0	0	0
0	0.02	0	0	0
1.01	0.22	0	0	0
0	0.22	0	0	0
0.19	0.22	0	0	0
0.42999999999999999	0.22	0	0	0
0.42999999999999999	0.23000000000000001	0	0	0
0.19	0.23000000000000001	0	0	0
0.57999999999999996	0.22	0	0	0
0.81999999999999995	0.22	0	0	0
0.81999999999999995	0.23000000000000001	0	0	0
0.57999999999999996	0.23000000000000001	0	0	0
[NumSegments] = 17
0	1	-1	0	0	0	0
1	2	-1	0	0	0	0
2	3	-1	0	0	0	0
3	0	-1	0	0	0	0
2	4	-1	0	0	0	0
4	11	-1	0	0	0	0
5	3	-1	0	0	0	0
6	5	-1	0	0	0	0
7	6	-1	0	0	0	0
7	8	-1	0	0	0	0
8	9	-1	0	0	0	0
9	6	-1	0	0	0	0
10	7	-1	0	0	0	0
11	10	-1	0	0	0	0
11	12	-1	0	0	0	0
12	13	-1	0	0	0	0
13	10	-1	0	0	0	0
[NumArcSegments] = 0
[NumHoles] = 0
[NumBlockLabels] = 0
